cluster_decentral/netdata/suburban_146.uct
##C 2007.05.01
Exported from: C:\Users\cmo\Desktop\2DSM\dev\Data\Scenarios\Suburban146_SimX_v1.0\Models_NL\Suburban146.nepprj 
      Created: Donnerstag, Oktober 02, 2014, 17:16:23
##N
##ZZone 1
HCP_9-15 HCP_9-15     0 0        0.13800 0.04500 0.00000 0.00000 0.00000 0.00000 0.00000 0.00000 0.000 0.00000
HCP_9-14 HCP_9-14     0 0        0.13600 0.04500 0.00000 0.00000 0.00000 0.00000 0.00000 0.00000 0.000 0.00000
PCC_8-02 PCC_8-02     0 0        0.00000 0.00000 0.00000 0.00000 0.00000 0.00000 0.00000 0.00000 0.000 0.00000
HCP_8-02 HCP_8-02     0 0        0.31500 0.10400 0.00000 0.00000 0.00000 0.00000 0.00000 0.00000 0.000 0.00000
HCP_8-01 HCP_8-01     0 0        0.11300 0.03700 0.00000 0.00000 0.00000 0.00000 0.00000 0.00000 0.000 0.00000
PCC_7-02 PCC_7-02     0 0        0.00000 0.00000 0.00000 0.00000 0.00000 0.00000 0.00000 0.00000 0.000 0.00000
HCP_7-02 HCP_7-02     0 0        0.15300 0.05000 0.00000 0.00000 0.00000 0.00000 0.00000 0.00000 0.000 0.00000
HCP_7-01 HCP_7-01     0 0        0.24000 0.07900 0.00000 0.00000 0.00000 0.00000 0.00000 0.00000 0.000 0.00000
PCC_6-02 PCC_6-02     0 0        0.00000 0.00000 0.00000 0.00000 0.00000 0.00000 0.00000 0.00000 0.000 0.00000
HCP_6-02 HCP_6-02     0 0        0.16500 0.05400 0.00000 0.00000 0.00000 0.00000 0.00000 0.00000 0.000 0.00000
HCP_6-01 HCP_6-01     0 0        0.36400 0.12000 0.00000 0.00000 0.00000 0.00000 0.00000 0.00000 0.000 0.00000
PCC_5-11 PCC_5-11     0 0        0.00000 0.00000 0.00000 0.00000 0.00000 0.00000 0.00000 0.00000 0.000 0.00000
HCP_5-11 HCP_5-11     0 0        0.03400 0.01100 0.00000 0.00000 0.00000 0.00000 0.00000 0.00000 0.000 0.00000
PCC_5-10 PCC_5-10     0 0        0.00000 0.00000 0.00000 0.00000 0.00000 0.00000 0.00000 0.00000 0.000 0.00000
HCP_5-10 HCP_5-10     0 0        0.06600 0.02200 0.00000 0.00000 0.00000 0.00000 0.00000 0.00000 0.000 0.00000
PCC_3-04 PCC_3-04     0 0        0.00000 0.00000 0.00000 0.00000 0.00000 0.00000 0.00000 0.00000 0.000 0.00000
HCP_3-05 HCP_3-05     0 0        0.47500 0.15600 0.00000 0.00000 0.00000 0.00000 0.00000 0.00000 0.000 0.00000
PCC_3-05 PCC_3-05     0 0        0.00000 0.00000 0.00000 0.00000 0.00000 0.00000 0.00000 0.00000 0.000 0.00000
PCC_2-04 PCC_2-04     0 0        0.00000 0.00000 0.00000 0.00000 0.00000 0.00000 0.00000 0.00000 0.000 0.00000
HCP_2-05 HCP_2-05     0 0        0.37800 0.12400 0.00000 0.00000 0.00000 0.00000 0.00000 0.00000 0.000 0.00000
PCC_2-05 PCC_2-05     0 0        0.00000 0.00000 0.00000 0.00000 0.00000 0.00000 0.00000 0.00000 0.000 0.00000
N1229801761 N1229801761  0 3 10.000 0.00000 0.00000 -0.0394 -0.0131 0.00000 0.00000 0.00000 0.00000 0.000 0.00000
LV_Bus   LV_Bus       0 0        0.00000 0.00000 0.00000 0.00000 0.00000 0.00000 0.00000 0.00000 0.000 0.00000
PCC_9-21 PCC_9-21     0 0        0.00000 0.00000 0.00000 0.00000 0.00000 0.00000 0.00000 0.00000 0.000 0.00000
HCP_9-21 HCP_9-21     0 0        0.30200 0.09900 0.00000 0.00000 0.00000 0.00000 0.00000 0.00000 0.000 0.00000
PCC_9-20 PCC_9-20     0 0        0.00000 0.00000 0.00000 0.00000 0.00000 0.00000 0.00000 0.00000 0.000 0.00000
HCP_9-20 HCP_9-20     0 0        0.14800 0.04900 0.00000 0.00000 0.00000 0.00000 0.00000 0.00000 0.000 0.00000
HCP_9-17 HCP_9-17     0 0        0.15500 0.05100 0.00000 0.00000 0.00000 0.00000 0.00000 0.00000 0.000 0.00000
HCP_9-16 HCP_9-16     0 0        0.30100 0.09900 0.00000 0.00000 0.00000 0.00000 0.00000 0.00000 0.000 0.00000
PCC_8-04 PCC_8-04     0 0        0.00000 0.00000 0.00000 0.00000 0.00000 0.00000 0.00000 0.00000 0.000 0.00000
HCP_8-04 HCP_8-04     0 0        0.52400 0.17200 0.00000 0.00000 0.00000 0.00000 0.00000 0.00000 0.000 0.00000
PCC_8-03 PCC_8-03     0 0        0.00000 0.00000 0.00000 0.00000 0.00000 0.00000 0.00000 0.00000 0.000 0.00000
HCP_8-03 HCP_8-03     0 0        0.23500 0.07700 0.00000 0.00000 0.00000 0.00000 0.00000 0.00000 0.000 0.00000
PCC_7-04 PCC_7-04     0 0        0.00000 0.00000 0.00000 0.00000 0.00000 0.00000 0.00000 0.00000 0.000 0.00000
HCP_7-04 HCP_7-04     0 0        0.18200 0.06000 0.00000 0.00000 0.00000 0.00000 0.00000 0.00000 0.000 0.00000
PCC_7-03 PCC_7-03     0 0        0.00000 0.00000 0.00000 0.00000 0.00000 0.00000 0.00000 0.00000 0.000 0.00000
HCP_7-03 HCP_7-03     0 0        0.24500 0.08000 0.00000 0.00000 0.00000 0.00000 0.00000 0.00000 0.000 0.00000
PCC_6-04 PCC_6-04     0 0        0.00000 0.00000 0.00000 0.00000 0.00000 0.00000 0.00000 0.00000 0.000 0.00000
HCP_6-04 HCP_6-04     0 0        0.51000 0.16800 0.00000 0.00000 0.00000 0.00000 0.00000 0.00000 0.000 0.00000
PCC_6-03 PCC_6-03     0 0        0.00000 0.00000 0.00000 0.00000 0.00000 0.00000 0.00000 0.00000 0.000 0.00000
HCP_6-03 HCP_6-03     0 0        0.27800 0.09100 0.00000 0.00000 0.00000 0.00000 0.00000 0.00000 0.000 0.00000
PCC_5-13 PCC_5-13     0 0        0.00000 0.00000 0.00000 0.00000 0.00000 0.00000 0.00000 0.00000 0.000 0.00000
HCP_5-13 HCP_5-13     0 0        0.02500 0.00800 0.00000 0.00000 0.00000 0.00000 0.00000 0.00000 0.000 0.00000
PCC_5-12 PCC_5-12     0 0        0.00000 0.00000 0.00000 0.00000 0.00000 0.00000 0.00000 0.00000 0.000 0.00000
HCP_5-12 HCP_5-12     0 0        0.12600 0.04100 0.00000 0.00000 0.00000 0.00000 0.00000 0.00000 0.000 0.00000
PCC_4-15 PCC_4-15     0 0        0.00000 0.00000 0.00000 0.00000 0.00000 0.00000 0.00000 0.00000 0.000 0.00000
HCP_4-15 HCP_4-15     0 0        0.30700 0.10100 0.00000 0.00000 0.00000 0.00000 0.00000 0.00000 0.000 0.00000
HCP_3-06 HCP_3-06     0 0        0.26500 0.08700 0.00000 0.00000 0.00000 0.00000 0.00000 0.00000 0.000 0.00000
PCC_3-06 PCC_3-06     0 0        0.00000 0.00000 0.00000 0.00000 0.00000 0.00000 0.00000 0.00000 0.000 0.00000
HCP_3-07 HCP_3-07     0 0        0.09900 0.03300 0.00000 0.00000 0.00000 0.00000 0.00000 0.00000 0.000 0.00000
PCC_3-07 PCC_3-07     0 0        0.00000 0.00000 0.00000 0.00000 0.00000 0.00000 0.00000 0.00000 0.000 0.00000
HCP_2-06 HCP_2-06     0 0        0.46000 0.15100 0.00000 0.00000 0.00000 0.00000 0.00000 0.00000 0.000 0.00000
PCC_2-06 PCC_2-06     0 0        0.00000 0.00000 0.00000 0.00000 0.00000 0.00000 0.00000 0.00000 0.000 0.00000
HCP_2-07 HCP_2-07     0 0        0.08700 0.02900 0.00000 0.00000 0.00000 0.00000 0.00000 0.00000 0.000 0.00000
PCC_2-07 PCC_2-07     0 0        0.00000 0.00000 0.00000 0.00000 0.00000 0.00000 0.00000 0.00000 0.000 0.00000
HCP_1-06 HCP_1-06     0 0        0.20800 0.06800 0.00000 0.00000 0.00000 0.00000 0.00000 0.00000 0.000 0.00000
PCC_1-06 PCC_1-06     0 0        0.00000 0.00000 0.00000 0.00000 0.00000 0.00000 0.00000 0.00000 0.000 0.00000
PCC_9-23 PCC_9-23     0 0        0.00000 0.00000 0.00000 0.00000 0.00000 0.00000 0.00000 0.00000 0.000 0.00000
HCP_9-23 HCP_9-23     0 0        0.20900 0.06900 0.00000 0.00000 0.00000 0.00000 0.00000 0.00000 0.000 0.00000
PCC_9-22 PCC_9-22     0 0        0.00000 0.00000 0.00000 0.00000 0.00000 0.00000 0.00000 0.00000 0.000 0.00000
HCP_9-22 HCP_9-22     0 0        0.18400 0.06000 0.00000 0.00000 0.00000 0.00000 0.00000 0.00000 0.000 0.00000
PCC_9-15 PCC_9-15     0 0        0.00000 0.00000 0.00000 0.00000 0.00000 0.00000 0.00000 0.00000 0.000 0.00000
PCC_9-14 PCC_9-14     0 0        0.00000 0.00000 0.00000 0.00000 0.00000 0.00000 0.00000 0.00000 0.000 0.00000
HCP_9-19 HCP_9-19     0 0        0.26800 0.08800 0.00000 0.00000 0.00000 0.00000 0.00000 0.00000 0.000 0.00000
HCP_9-18 HCP_9-18     0 0        0.08500 0.02800 0.00000 0.00000 0.00000 0.00000 0.00000 0.00000 0.000 0.00000
PCC_8-06 PCC_8-06     0 0        0.00000 0.00000 0.00000 0.00000 0.00000 0.00000 0.00000 0.00000 0.000 0.00000
HCP_8-06 HCP_8-06     0 0        0.25900 0.08500 0.00000 0.00000 0.00000 0.00000 0.00000 0.00000 0.000 0.00000
PCC_8-05 PCC_8-05     0 0        0.00000 0.00000 0.00000 0.00000 0.00000 0.00000 0.00000 0.00000 0.000 0.00000
HCP_8-05 HCP_8-05     0 0        0.04300 0.01400 0.00000 0.00000 0.00000 0.00000 0.00000 0.00000 0.000 0.00000
PCC_7-05 PCC_7-05     0 0        0.00000 0.00000 0.00000 0.00000 0.00000 0.00000 0.00000 0.00000 0.000 0.00000
HCP_7-05 HCP_7-05     0 0        0.23500 0.07700 0.00000 0.00000 0.00000 0.00000 0.00000 0.00000 0.000 0.00000
PCC_6-05 PCC_6-05     0 0        0.00000 0.00000 0.00000 0.00000 0.00000 0.00000 0.00000 0.00000 0.000 0.00000
HCP_6-05 HCP_6-05     0 0        0.16400 0.05400 0.00000 0.00000 0.00000 0.00000 0.00000 0.00000 0.000 0.00000
PCC_5-01 PCC_5-01     0 0        0.00000 0.00000 0.00000 0.00000 0.00000 0.00000 0.00000 0.00000 0.000 0.00000
HCP_5-14 HCP_5-14     0 0        0.27700 0.09100 0.00000 0.00000 0.00000 0.00000 0.00000 0.00000 0.000 0.00000
PCC_4-16 PCC_4-16     0 0        0.00000 0.00000 0.00000 0.00000 0.00000 0.00000 0.00000 0.00000 0.000 0.00000
HCP_4-16 HCP_4-16     0 0        0.11700 0.03800 0.00000 0.00000 0.00000 0.00000 0.00000 0.00000 0.000 0.00000
HCP_3-08 HCP_3-08     0 0        0.10800 0.03600 0.00000 0.00000 0.00000 0.00000 0.00000 0.00000 0.000 0.00000
PCC_3-08 PCC_3-08     0 0        0.00000 0.00000 0.00000 0.00000 0.00000 0.00000 0.00000 0.00000 0.000 0.00000
HCP_2-08 HCP_2-08     0 0        0.02900 0.01000 0.00000 0.00000 0.00000 0.00000 0.00000 0.00000 0.000 0.00000
PCC_2-08 PCC_2-08     0 0        0.00000 0.00000 0.00000 0.00000 0.00000 0.00000 0.00000 0.00000 0.000 0.00000
HCP_1-07 HCP_1-07     0 0        0.98700 0.32500 0.00000 0.00000 0.00000 0.00000 0.00000 0.00000 0.000 0.00000
PCC_1-07 PCC_1-07     0 0        0.00000 0.00000 0.00000 0.00000 0.00000 0.00000 0.00000 0.00000 0.000 0.00000
PCC_1-01 PCC_1-01     0 0        0.00000 0.00000 0.00000 0.00000 0.00000 0.00000 0.00000 0.00000 0.000 0.00000
HCP_9-25 HCP_9-25     0 0        0.14700 0.04800 0.00000 0.00000 0.00000 0.00000 0.00000 0.00000 0.000 0.00000
PCC_9-24 PCC_9-24     0 0        0.00000 0.00000 0.00000 0.00000 0.00000 0.00000 0.00000 0.00000 0.000 0.00000
HCP_9-24 HCP_9-24     0 0        0.10700 0.03500 0.00000 0.00000 0.00000 0.00000 0.00000 0.00000 0.000 0.00000
PCC_9-01 PCC_9-01     0 0        0.00000 0.00000 0.00000 0.00000 0.00000 0.00000 0.00000 0.00000 0.000 0.00000
PCC_9-18 PCC_9-18     0 0        0.00000 0.00000 0.00000 0.00000 0.00000 0.00000 0.00000 0.00000 0.000 0.00000
PCC_9-19 PCC_9-19     0 0        0.00000 0.00000 0.00000 0.00000 0.00000 0.00000 0.00000 0.00000 0.000 0.00000
PCC_9-17 PCC_9-17     0 0        0.00000 0.00000 0.00000 0.00000 0.00000 0.00000 0.00000 0.00000 0.000 0.00000
PCC_9-16 PCC_9-16     0 0        0.00000 0.00000 0.00000 0.00000 0.00000 0.00000 0.00000 0.00000 0.000 0.00000
PCC_8-07 PCC_8-07     0 0        0.00000 0.00000 0.00000 0.00000 0.00000 0.00000 0.00000 0.00000 0.000 0.00000
HCP_8-07 HCP_8-07     0 0        0.16600 0.05500 0.00000 0.00000 0.00000 0.00000 0.00000 0.00000 0.000 0.00000
PCC_7-07 PCC_7-07     0 0        0.00000 0.00000 0.00000 0.00000 0.00000 0.00000 0.00000 0.00000 0.000 0.00000
HCP_7-07 HCP_7-07     0 0        0.14600 0.04800 0.00000 0.00000 0.00000 0.00000 0.00000 0.00000 0.000 0.00000
PCC_7-06 PCC_7-06     0 0        0.00000 0.00000 0.00000 0.00000 0.00000 0.00000 0.00000 0.00000 0.000 0.00000
HCP_7-06 HCP_7-06     0 0        0.43800 0.14400 0.00000 0.00000 0.00000 0.00000 0.00000 0.00000 0.000 0.00000
PCC_6-07 PCC_6-07     0 0        0.00000 0.00000 0.00000 0.00000 0.00000 0.00000 0.00000 0.00000 0.000 0.00000
HCP_6-07 HCP_6-07     0 0        0.80500 0.26500 0.00000 0.00000 0.00000 0.00000 0.00000 0.00000 0.000 0.00000
PCC_6-06 PCC_6-06     0 0        0.00000 0.00000 0.00000 0.00000 0.00000 0.00000 0.00000 0.00000 0.000 0.00000
HCP_6-06 HCP_6-06     0 0        0.28300 0.09300 0.00000 0.00000 0.00000 0.00000 0.00000 0.00000 0.000 0.00000
HCP_5-17 HCP_5-17     0 0        0.18800 0.06200 0.00000 0.00000 0.00000 0.00000 0.00000 0.00000 0.000 0.00000
HCP_5-16 HCP_5-16     0 0        0.13600 0.04500 0.00000 0.00000 0.00000 0.00000 0.00000 0.00000 0.000 0.00000
HCP_5-15 HCP_5-15     0 0        0.07000 0.02300 0.00000 0.00000 0.00000 0.00000 0.00000 0.00000 0.000 0.00000
PCC_4-17 PCC_4-17     0 0        0.00000 0.00000 0.00000 0.00000 0.00000 0.00000 0.00000 0.00000 0.000 0.00000
HCP_4-17 HCP_4-17     0 0        0.05000 0.01600 0.00000 0.00000 0.00000 0.00000 0.00000 0.00000 0.000 0.00000
HCP_4-01 HCP_4-01     0 0        0.32600 0.10700 0.00000 0.00000 0.00000 0.00000 0.00000 0.00000 0.000 0.00000
HCP_4-02 HCP_4-02     0 0        0.19000 0.06200 0.00000 0.00000 0.00000 0.00000 0.00000 0.00000 0.000 0.00000
PCC_4-02 PCC_4-02     0 0        0.00000 0.00000 0.00000 0.00000 0.00000 0.00000 0.00000 0.00000 0.000 0.00000
HCP_3-09 HCP_3-09     0 0        0.09700 0.03200 0.00000 0.00000 0.00000 0.00000 0.00000 0.00000 0.000 0.00000
PCC_3-09 PCC_3-09     0 0        0.00000 0.00000 0.00000 0.00000 0.00000 0.00000 0.00000 0.00000 0.000 0.00000
HCP_3-10 HCP_3-10     0 0        0.56200 0.18500 0.00000 0.00000 0.00000 0.00000 0.00000 0.00000 0.000 0.00000
PCC_3-10 PCC_3-10     0 0        0.00000 0.00000 0.00000 0.00000 0.00000 0.00000 0.00000 0.00000 0.000 0.00000
HCP_2-09 HCP_2-09     0 0        0.26300 0.08700 0.00000 0.00000 0.00000 0.00000 0.00000 0.00000 0.000 0.00000
PCC_2-09 PCC_2-09     0 0        0.00000 0.00000 0.00000 0.00000 0.00000 0.00000 0.00000 0.00000 0.000 0.00000
HCP_2-10 HCP_2-10     0 0        0.13500 0.04500 0.00000 0.00000 0.00000 0.00000 0.00000 0.00000 0.000 0.00000
PCC_2-10 PCC_2-10     0 0        0.00000 0.00000 0.00000 0.00000 0.00000 0.00000 0.00000 0.00000 0.000 0.00000
HCP_1-01 HCP_1-01     0 0        0.08400 0.02800 0.00000 0.00000 0.00000 0.00000 0.00000 0.00000 0.000 0.00000
PCC_9-26 PCC_9-26     0 0        0.00000 0.00000 0.00000 0.00000 0.00000 0.00000 0.00000 0.00000 0.000 0.00000
HCP_9-26 HCP_9-26     0 0        0.03000 0.01000 0.00000 0.00000 0.00000 0.00000 0.00000 0.00000 0.000 0.00000
PCC_9-25 PCC_9-25     0 0        0.00000 0.00000 0.00000 0.00000 0.00000 0.00000 0.00000 0.00000 0.000 0.00000
PCC_8-09 PCC_8-09     0 0        0.00000 0.00000 0.00000 0.00000 0.00000 0.00000 0.00000 0.00000 0.000 0.00000
HCP_8-09 HCP_8-09     0 0        0.26400 0.08700 0.00000 0.00000 0.00000 0.00000 0.00000 0.00000 0.000 0.00000
PCC_8-08 PCC_8-08     0 0        0.00000 0.00000 0.00000 0.00000 0.00000 0.00000 0.00000 0.00000 0.000 0.00000
HCP_8-08 HCP_8-08     0 0        0.24000 0.07900 0.00000 0.00000 0.00000 0.00000 0.00000 0.00000 0.000 0.00000
PCC_7-09 PCC_7-09     0 0        0.00000 0.00000 0.00000 0.00000 0.00000 0.00000 0.00000 0.00000 0.000 0.00000
HCP_7-09 HCP_7-09     0 0        0.18600 0.06100 0.00000 0.00000 0.00000 0.00000 0.00000 0.00000 0.000 0.00000
PCC_7-08 PCC_7-08     0 0        0.00000 0.00000 0.00000 0.00000 0.00000 0.00000 0.00000 0.00000 0.000 0.00000
HCP_7-08 HCP_7-08     0 0        0.05600 0.01900 0.00000 0.00000 0.00000 0.00000 0.00000 0.00000 0.000 0.00000
PCC_6-08 PCC_6-08     0 0        0.00000 0.00000 0.00000 0.00000 0.00000 0.00000 0.00000 0.00000 0.000 0.00000
HCP_6-08 HCP_6-08     0 0        0.06800 0.02200 0.00000 0.00000 0.00000 0.00000 0.00000 0.00000 0.000 0.00000
PCC_5-14 PCC_5-14     0 0        0.00000 0.00000 0.00000 0.00000 0.00000 0.00000 0.00000 0.00000 0.000 0.00000
HCP_5-19 HCP_5-19     0 0        0.04400 0.01400 0.00000 0.00000 0.00000 0.00000 0.00000 0.00000 0.000 0.00000
HCP_5-18 HCP_5-18     0 0        0.22600 0.07400 0.00000 0.00000 0.00000 0.00000 0.00000 0.00000 0.000 0.00000
HCP_4-03 HCP_4-03     0 0        0.25500 0.08400 0.00000 0.00000 0.00000 0.00000 0.00000 0.00000 0.000 0.00000
PCC_4-03 PCC_4-03     0 0        0.00000 0.00000 0.00000 0.00000 0.00000 0.00000 0.00000 0.00000 0.000 0.00000
HCP_4-04 HCP_4-04     0 0        0.33600 0.11000 0.00000 0.00000 0.00000 0.00000 0.00000 0.00000 0.000 0.00000
PCC_4-04 PCC_4-04     0 0        0.00000 0.00000 0.00000 0.00000 0.00000 0.00000 0.00000 0.00000 0.000 0.00000
HCP_3-11 HCP_3-11     0 0        0.18600 0.06100 0.00000 0.00000 0.00000 0.00000 0.00000 0.00000 0.000 0.00000
PCC_3-11 PCC_3-11     0 0        0.00000 0.00000 0.00000 0.00000 0.00000 0.00000 0.00000 0.00000 0.000 0.00000
HCP_3-12 HCP_3-12     0 0        0.26300 0.08600 0.00000 0.00000 0.00000 0.00000 0.00000 0.00000 0.000 0.00000
HCP_2-11 HCP_2-11     0 0        0.09700 0.03200 0.00000 0.00000 0.00000 0.00000 0.00000 0.00000 0.000 0.00000
PCC_2-11 PCC_2-11     0 0        0.00000 0.00000 0.00000 0.00000 0.00000 0.00000 0.00000 0.00000 0.000 0.00000
HCP_2-12 HCP_2-12     0 0        0.42700 0.14000 0.00000 0.00000 0.00000 0.00000 0.00000 0.00000 0.000 0.00000
HCP_1-08 HCP_1-08     0 0        0.25600 0.08400 0.00000 0.00000 0.00000 0.00000 0.00000 0.00000 0.000 0.00000
PCC_1-08 PCC_1-08     0 0        0.00000 0.00000 0.00000 0.00000 0.00000 0.00000 0.00000 0.00000 0.000 0.00000
PCC_9-28 PCC_9-28     0 0        0.00000 0.00000 0.00000 0.00000 0.00000 0.00000 0.00000 0.00000 0.000 0.00000
HCP_9-28 HCP_9-28     0 0        0.48900 0.16100 0.00000 0.00000 0.00000 0.00000 0.00000 0.00000 0.000 0.00000
PCC_9-27 PCC_9-27     0 0        0.00000 0.00000 0.00000 0.00000 0.00000 0.00000 0.00000 0.00000 0.000 0.00000
HCP_9-27 HCP_9-27     0 0        2.48400 0.81700 0.00000 0.00000 0.00000 0.00000 0.00000 0.00000 0.000 0.00000
PCC_8-01 PCC_8-01     0 0        0.00000 0.00000 0.00000 0.00000 0.00000 0.00000 0.00000 0.00000 0.000 0.00000
PCC_8-10 PCC_8-10     0 0        0.00000 0.00000 0.00000 0.00000 0.00000 0.00000 0.00000 0.00000 0.000 0.00000
HCP_8-10 HCP_8-10     0 0        0.23900 0.07800 0.00000 0.00000 0.00000 0.00000 0.00000 0.00000 0.000 0.00000
PCC_7-10 PCC_7-10     0 0        0.00000 0.00000 0.00000 0.00000 0.00000 0.00000 0.00000 0.00000 0.000 0.00000
HCP_7-10 HCP_7-10     0 0        0.23100 0.07600 0.00000 0.00000 0.00000 0.00000 0.00000 0.00000 0.000 0.00000
PCC_6-10 PCC_6-10     0 0        0.00000 0.00000 0.00000 0.00000 0.00000 0.00000 0.00000 0.00000 0.000 0.00000
HCP_6-10 HCP_6-10     0 0        0.49900 0.16400 0.00000 0.00000 0.00000 0.00000 0.00000 0.00000 0.000 0.00000
PCC_6-09 PCC_6-09     0 0        0.00000 0.00000 0.00000 0.00000 0.00000 0.00000 0.00000 0.00000 0.000 0.00000
HCP_6-09 HCP_6-09     0 0        0.45800 0.15100 0.00000 0.00000 0.00000 0.00000 0.00000 0.00000 0.000 0.00000
PCC_5-18 PCC_5-18     0 0        0.00000 0.00000 0.00000 0.00000 0.00000 0.00000 0.00000 0.00000 0.000 0.00000
PCC_5-19 PCC_5-19     0 0        0.00000 0.00000 0.00000 0.00000 0.00000 0.00000 0.00000 0.00000 0.000 0.00000
PCC_5-17 PCC_5-17     0 0        0.00000 0.00000 0.00000 0.00000 0.00000 0.00000 0.00000 0.00000 0.000 0.00000
PCC_5-16 PCC_5-16     0 0        0.00000 0.00000 0.00000 0.00000 0.00000 0.00000 0.00000 0.00000 0.000 0.00000
PCC_5-15 PCC_5-15     0 0        0.00000 0.00000 0.00000 0.00000 0.00000 0.00000 0.00000 0.00000 0.000 0.00000
PCC_4-18 PCC_4-18     0 0        0.00000 0.00000 0.00000 0.00000 0.00000 0.00000 0.00000 0.00000 0.000 0.00000
HCP_4-18 HCP_4-18     0 0        0.04700 0.01600 0.00000 0.00000 0.00000 0.00000 0.00000 0.00000 0.000 0.00000
HCP_4-05 HCP_4-05     0 0        0.09500 0.03100 0.00000 0.00000 0.00000 0.00000 0.00000 0.00000 0.000 0.00000
PCC_4-05 PCC_4-05     0 0        0.00000 0.00000 0.00000 0.00000 0.00000 0.00000 0.00000 0.00000 0.000 0.00000
PCC_3-12 PCC_3-12     0 0        0.00000 0.00000 0.00000 0.00000 0.00000 0.00000 0.00000 0.00000 0.000 0.00000
HCP_3-13 HCP_3-13     0 0        0.80000 0.26300 0.00000 0.00000 0.00000 0.00000 0.00000 0.00000 0.000 0.00000
PCC_3-13 PCC_3-13     0 0        0.00000 0.00000 0.00000 0.00000 0.00000 0.00000 0.00000 0.00000 0.000 0.00000
PCC_2-12 PCC_2-12     0 0        0.00000 0.00000 0.00000 0.00000 0.00000 0.00000 0.00000 0.00000 0.000 0.00000
HCP_2-13 HCP_2-13     0 0        0.20700 0.06800 0.00000 0.00000 0.00000 0.00000 0.00000 0.00000 0.000 0.00000
PCC_2-13 PCC_2-13     0 0        0.00000 0.00000 0.00000 0.00000 0.00000 0.00000 0.00000 0.00000 0.000 0.00000
PCC_9-29 PCC_9-29     0 0        0.00000 0.00000 0.00000 0.00000 0.00000 0.00000 0.00000 0.00000 0.000 0.00000
HCP_9-29 HCP_9-29     0 0        0.25400 0.08300 0.00000 0.00000 0.00000 0.00000 0.00000 0.00000 0.000 0.00000
PCC_7-01 PCC_7-01     0 0        0.00000 0.00000 0.00000 0.00000 0.00000 0.00000 0.00000 0.00000 0.000 0.00000
PCC_6-01 PCC_6-01     0 0        0.00000 0.00000 0.00000 0.00000 0.00000 0.00000 0.00000 0.00000 0.000 0.00000
PCC_4-19 PCC_4-19     0 0        0.00000 0.00000 0.00000 0.00000 0.00000 0.00000 0.00000 0.00000 0.000 0.00000
HCP_4-19 HCP_4-19     0 0        0.10800 0.03500 0.00000 0.00000 0.00000 0.00000 0.00000 0.00000 0.000 0.00000
HCP_4-06 HCP_4-06     0 0        0.11900 0.03900 0.00000 0.00000 0.00000 0.00000 0.00000 0.00000 0.000 0.00000
PCC_4-06 PCC_4-06     0 0        0.00000 0.00000 0.00000 0.00000 0.00000 0.00000 0.00000 0.00000 0.000 0.00000
HCP_4-07 HCP_4-07     0 0        0.23300 0.07700 0.00000 0.00000 0.00000 0.00000 0.00000 0.00000 0.000 0.00000
PCC_4-07 PCC_4-07     0 0        0.00000 0.00000 0.00000 0.00000 0.00000 0.00000 0.00000 0.00000 0.000 0.00000
HCP_3-14 HCP_3-14     0 0        0.41300 0.13600 0.00000 0.00000 0.00000 0.00000 0.00000 0.00000 0.000 0.00000
PCC_3-14 PCC_3-14     0 0        0.00000 0.00000 0.00000 0.00000 0.00000 0.00000 0.00000 0.00000 0.000 0.00000
PCC_3-01 PCC_3-01     0 0        0.00000 0.00000 0.00000 0.00000 0.00000 0.00000 0.00000 0.00000 0.000 0.00000
HCP_2-14 HCP_2-14     0 0        0.56200 0.18500 0.00000 0.00000 0.00000 0.00000 0.00000 0.00000 0.000 0.00000
PCC_2-14 PCC_2-14     0 0        0.00000 0.00000 0.00000 0.00000 0.00000 0.00000 0.00000 0.00000 0.000 0.00000
HCP_1-09 HCP_1-09     0 0        0.09200 0.03000 0.00000 0.00000 0.00000 0.00000 0.00000 0.00000 0.000 0.00000
PCC_1-09 PCC_1-09     0 0        0.00000 0.00000 0.00000 0.00000 0.00000 0.00000 0.00000 0.00000 0.000 0.00000
PCC_9-31 PCC_9-31     0 0        0.00000 0.00000 0.00000 0.00000 0.00000 0.00000 0.00000 0.00000 0.000 0.00000
HCP_9-31 HCP_9-31     0 0        0.18300 0.06000 0.00000 0.00000 0.00000 0.00000 0.00000 0.00000 0.000 0.00000
PCC_9-30 PCC_9-30     0 0        0.00000 0.00000 0.00000 0.00000 0.00000 0.00000 0.00000 0.00000 0.000 0.00000
HCP_9-30 HCP_9-30     0 0        0.14600 0.04800 0.00000 0.00000 0.00000 0.00000 0.00000 0.00000 0.000 0.00000
HCP_4-08 HCP_4-08     0 0        2.94800 0.96900 0.00000 0.00000 0.00000 0.00000 0.00000 0.00000 0.000 0.00000
PCC_4-08 PCC_4-08     0 0        0.00000 0.00000 0.00000 0.00000 0.00000 0.00000 0.00000 0.00000 0.000 0.00000
HCP_4-09 HCP_4-09     0 0        0.14600 0.04800 0.00000 0.00000 0.00000 0.00000 0.00000 0.00000 0.000 0.00000
PCC_4-09 PCC_4-09     0 0        0.00000 0.00000 0.00000 0.00000 0.00000 0.00000 0.00000 0.00000 0.000 0.00000
HCP_1-10 HCP_1-10     0 0        0.17700 0.05800 0.00000 0.00000 0.00000 0.00000 0.00000 0.00000 0.000 0.00000
PCC_1-10 PCC_1-10     0 0        0.00000 0.00000 0.00000 0.00000 0.00000 0.00000 0.00000 0.00000 0.000 0.00000
PCC_9-32 PCC_9-32     0 0        0.00000 0.00000 0.00000 0.00000 0.00000 0.00000 0.00000 0.00000 0.000 0.00000
HCP_9-32 HCP_9-32     0 0        0.17100 0.05600 0.00000 0.00000 0.00000 0.00000 0.00000 0.00000 0.000 0.00000
HCP_4-10 HCP_4-10     0 0        0.08000 0.02600 0.00000 0.00000 0.00000 0.00000 0.00000 0.00000 0.000 0.00000
PCC_4-10 PCC_4-10     0 0        0.00000 0.00000 0.00000 0.00000 0.00000 0.00000 0.00000 0.00000 0.000 0.00000
HCP_1-02 HCP_1-02     0 0        0.24900 0.08200 0.00000 0.00000 0.00000 0.00000 0.00000 0.00000 0.000 0.00000
PCC_1-02 PCC_1-02     0 0        0.00000 0.00000 0.00000 0.00000 0.00000 0.00000 0.00000 0.00000 0.000 0.00000
HCP_9-02 HCP_9-02     0 0        0.14600 0.04800 0.00000 0.00000 0.00000 0.00000 0.00000 0.00000 0.000 0.00000
HCP_9-01 HCP_9-01     0 0        0.07300 0.02400 0.00000 0.00000 0.00000 0.00000 0.00000 0.00000 0.000 0.00000
HCP_4-11 HCP_4-11     0 0        0.56800 0.18700 0.00000 0.00000 0.00000 0.00000 0.00000 0.00000 0.000 0.00000
PCC_4-11 PCC_4-11     0 0        0.00000 0.00000 0.00000 0.00000 0.00000 0.00000 0.00000 0.00000 0.000 0.00000
HCP_4-12 HCP_4-12     0 0        0.29700 0.09700 0.00000 0.00000 0.00000 0.00000 0.00000 0.00000 0.000 0.00000
PCC_4-12 PCC_4-12     0 0        0.00000 0.00000 0.00000 0.00000 0.00000 0.00000 0.00000 0.00000 0.000 0.00000
HCP_1-11 HCP_1-11     0 0        0.08600 0.02800 0.00000 0.00000 0.00000 0.00000 0.00000 0.00000 0.000 0.00000
PCC_1-11 PCC_1-11     0 0        0.00000 0.00000 0.00000 0.00000 0.00000 0.00000 0.00000 0.00000 0.000 0.00000
PCC_9-03 PCC_9-03     0 0        0.00000 0.00000 0.00000 0.00000 0.00000 0.00000 0.00000 0.00000 0.000 0.00000
HCP_9-03 HCP_9-03     0 0        1.06500 0.35000 0.00000 0.00000 0.00000 0.00000 0.00000 0.00000 0.000 0.00000
PCC_9-02 PCC_9-02     0 0        0.00000 0.00000 0.00000 0.00000 0.00000 0.00000 0.00000 0.00000 0.000 0.00000
HCP_4-13 HCP_4-13     0 0        0.11800 0.03900 0.00000 0.00000 0.00000 0.00000 0.00000 0.00000 0.000 0.00000
PCC_4-13 PCC_4-13     0 0        0.00000 0.00000 0.00000 0.00000 0.00000 0.00000 0.00000 0.00000 0.000 0.00000
PCC_9-05 PCC_9-05     0 0        0.00000 0.00000 0.00000 0.00000 0.00000 0.00000 0.00000 0.00000 0.000 0.00000
HCP_9-05 HCP_9-05     0 0        0.05200 0.01700 0.00000 0.00000 0.00000 0.00000 0.00000 0.00000 0.000 0.00000
PCC_9-04 PCC_9-04     0 0        0.00000 0.00000 0.00000 0.00000 0.00000 0.00000 0.00000 0.00000 0.000 0.00000
HCP_9-04 HCP_9-04     0 0        0.12300 0.04000 0.00000 0.00000 0.00000 0.00000 0.00000 0.00000 0.000 0.00000
HCP_5-01 HCP_5-01     0 0        0.22800 0.07500 0.00000 0.00000 0.00000 0.00000 0.00000 0.00000 0.000 0.00000
HCP_4-14 HCP_4-14     0 0        0.05600 0.01900 0.00000 0.00000 0.00000 0.00000 0.00000 0.00000 0.000 0.00000
PCC_4-14 PCC_4-14     0 0        0.00000 0.00000 0.00000 0.00000 0.00000 0.00000 0.00000 0.00000 0.000 0.00000
PCC_4-01 PCC_4-01     0 0        0.00000 0.00000 0.00000 0.00000 0.00000 0.00000 0.00000 0.00000 0.000 0.00000
HCP_1-12 HCP_1-12     0 0        0.25400 0.08300 0.00000 0.00000 0.00000 0.00000 0.00000 0.00000 0.000 0.00000
PCC_1-12 PCC_1-12     0 0        0.00000 0.00000 0.00000 0.00000 0.00000 0.00000 0.00000 0.00000 0.000 0.00000
HCP_9-07 HCP_9-07     0 0        0.23800 0.07800 0.00000 0.00000 0.00000 0.00000 0.00000 0.00000 0.000 0.00000
PCC_9-06 PCC_9-06     0 0        0.00000 0.00000 0.00000 0.00000 0.00000 0.00000 0.00000 0.00000 0.000 0.00000
HCP_9-06 HCP_9-06     0 0        0.84000 0.27600 0.00000 0.00000 0.00000 0.00000 0.00000 0.00000 0.000 0.00000
PCC_5-03 PCC_5-03     0 0        0.00000 0.00000 0.00000 0.00000 0.00000 0.00000 0.00000 0.00000 0.000 0.00000
HCP_5-03 HCP_5-03     0 0        0.24300 0.08000 0.00000 0.00000 0.00000 0.00000 0.00000 0.00000 0.000 0.00000
PCC_5-02 PCC_5-02     0 0        0.00000 0.00000 0.00000 0.00000 0.00000 0.00000 0.00000 0.00000 0.000 0.00000
HCP_5-02 HCP_5-02     0 0        0.09500 0.03100 0.00000 0.00000 0.00000 0.00000 0.00000 0.00000 0.000 0.00000
HCP_1-13 HCP_1-13     0 0        0.23100 0.07600 0.00000 0.00000 0.00000 0.00000 0.00000 0.00000 0.000 0.00000
PCC_1-13 PCC_1-13     0 0        0.00000 0.00000 0.00000 0.00000 0.00000 0.00000 0.00000 0.00000 0.000 0.00000
HCP_1-03 HCP_1-03     0 0        0.12500 0.04100 0.00000 0.00000 0.00000 0.00000 0.00000 0.00000 0.000 0.00000
PCC_1-03 PCC_1-03     0 0        0.00000 0.00000 0.00000 0.00000 0.00000 0.00000 0.00000 0.00000 0.000 0.00000
HCP_10-2 HCP_10-2     0 0        0.14100 0.04600 0.00000 0.00000 0.00000 0.00000 0.00000 0.00000 0.000 0.00000
HCP_10-01 HCP_10-01    0 0        0.28300 0.09300 0.00000 0.00000 0.00000 0.00000 0.00000 0.00000 0.000 0.00000
PCC_9-08 PCC_9-08     0 0        0.00000 0.00000 0.00000 0.00000 0.00000 0.00000 0.00000 0.00000 0.000 0.00000
HCP_9-08 HCP_9-08     0 0        0.02900 0.01000 0.00000 0.00000 0.00000 0.00000 0.00000 0.00000 0.000 0.00000
PCC_9-07 PCC_9-07     0 0        0.00000 0.00000 0.00000 0.00000 0.00000 0.00000 0.00000 0.00000 0.000 0.00000
PCC_5-05 PCC_5-05     0 0        0.00000 0.00000 0.00000 0.00000 0.00000 0.00000 0.00000 0.00000 0.000 0.00000
HCP_5-05 HCP_5-05     0 0        0.45900 0.15100 0.00000 0.00000 0.00000 0.00000 0.00000 0.00000 0.000 0.00000
PCC_5-04 PCC_5-04     0 0        0.00000 0.00000 0.00000 0.00000 0.00000 0.00000 0.00000 0.00000 0.000 0.00000
HCP_5-04 HCP_5-04     0 0        0.09500 0.03100 0.00000 0.00000 0.00000 0.00000 0.00000 0.00000 0.000 0.00000
PCC_10-03 PCC_10-03    0 0        0.00000 0.00000 0.00000 0.00000 0.00000 0.00000 0.00000 0.00000 0.000 0.00000
HCP_10-03 HCP_10-03    0 0        0.19600 0.06400 0.00000 0.00000 0.00000 0.00000 0.00000 0.00000 0.000 0.00000
PCC_10-02 PCC_10-02    0 0        0.00000 0.00000 0.00000 0.00000 0.00000 0.00000 0.00000 0.00000 0.000 0.00000
PCC_9-10 PCC_9-10     0 0        0.00000 0.00000 0.00000 0.00000 0.00000 0.00000 0.00000 0.00000 0.000 0.00000
HCP_9-10 HCP_9-10     0 0        0.21300 0.07000 0.00000 0.00000 0.00000 0.00000 0.00000 0.00000 0.000 0.00000
PCC_9-09 PCC_9-09     0 0        0.00000 0.00000 0.00000 0.00000 0.00000 0.00000 0.00000 0.00000 0.000 0.00000
HCP_9-09 HCP_9-09     0 0        0.23700 0.07800 0.00000 0.00000 0.00000 0.00000 0.00000 0.00000 0.000 0.00000
PCC_5-06 PCC_5-06     0 0        0.00000 0.00000 0.00000 0.00000 0.00000 0.00000 0.00000 0.00000 0.000 0.00000
HCP_5-06 HCP_5-06     0 0        0.17400 0.05700 0.00000 0.00000 0.00000 0.00000 0.00000 0.00000 0.000 0.00000
HCP_1-14 HCP_1-14     0 0        0.28600 0.09400 0.00000 0.00000 0.00000 0.00000 0.00000 0.00000 0.000 0.00000
PCC_1-14 PCC_1-14     0 0        0.00000 0.00000 0.00000 0.00000 0.00000 0.00000 0.00000 0.00000 0.000 0.00000
HCP_1-04 HCP_1-04     0 0        0.21400 0.07000 0.00000 0.00000 0.00000 0.00000 0.00000 0.00000 0.000 0.00000
PCC_1-04 PCC_1-04     0 0        0.00000 0.00000 0.00000 0.00000 0.00000 0.00000 0.00000 0.00000 0.000 0.00000
PCC_10-01 PCC_10-01    0 0        0.00000 0.00000 0.00000 0.00000 0.00000 0.00000 0.00000 0.00000 0.000 0.00000
PCC_10-04 PCC_10-04    0 0        0.00000 0.00000 0.00000 0.00000 0.00000 0.00000 0.00000 0.00000 0.000 0.00000
HCP_10-04 HCP_10-04    0 0        0.13100 0.04300 0.00000 0.00000 0.00000 0.00000 0.00000 0.00000 0.000 0.00000
PCC_9-11 PCC_9-11     0 0        0.00000 0.00000 0.00000 0.00000 0.00000 0.00000 0.00000 0.00000 0.000 0.00000
HCP_9-11 HCP_9-11     0 0        0.38300 0.12600 0.00000 0.00000 0.00000 0.00000 0.00000 0.00000 0.000 0.00000
PCC_5-08 PCC_5-08     0 0        0.00000 0.00000 0.00000 0.00000 0.00000 0.00000 0.00000 0.00000 0.000 0.00000
HCP_5-08 HCP_5-08     0 0        0.12600 0.04100 0.00000 0.00000 0.00000 0.00000 0.00000 0.00000 0.000 0.00000
PCC_5-07 PCC_5-07     0 0        0.00000 0.00000 0.00000 0.00000 0.00000 0.00000 0.00000 0.00000 0.000 0.00000
HCP_5-07 HCP_5-07     0 0        0.30000 0.09900 0.00000 0.00000 0.00000 0.00000 0.00000 0.00000 0.000 0.00000
HCP_3-01 HCP_3-01     0 0        0.26100 0.08600 0.00000 0.00000 0.00000 0.00000 0.00000 0.00000 0.000 0.00000
HCP_3-02 HCP_3-02     0 0        0.11000 0.03600 0.00000 0.00000 0.00000 0.00000 0.00000 0.00000 0.000 0.00000
PCC_3-02 PCC_3-02     0 0        0.00000 0.00000 0.00000 0.00000 0.00000 0.00000 0.00000 0.00000 0.000 0.00000
HCP_2-01 HCP_2-01     0 0        0.17100 0.05600 0.00000 0.00000 0.00000 0.00000 0.00000 0.00000 0.000 0.00000
HCP_2-02 HCP_2-02     0 0        0.08300 0.02700 0.00000 0.00000 0.00000 0.00000 0.00000 0.00000 0.000 0.00000
PCC_2-02 PCC_2-02     0 0        0.00000 0.00000 0.00000 0.00000 0.00000 0.00000 0.00000 0.00000 0.000 0.00000
PCC_2-01 PCC_2-01     0 0        0.00000 0.00000 0.00000 0.00000 0.00000 0.00000 0.00000 0.00000 0.000 0.00000
PCC_9-13 PCC_9-13     0 0        0.00000 0.00000 0.00000 0.00000 0.00000 0.00000 0.00000 0.00000 0.000 0.00000
HCP_9-13 HCP_9-13     0 0        0.37800 0.12400 0.00000 0.00000 0.00000 0.00000 0.00000 0.00000 0.000 0.00000
PCC_9-12 PCC_9-12     0 0        0.00000 0.00000 0.00000 0.00000 0.00000 0.00000 0.00000 0.00000 0.000 0.00000
HCP_9-12 HCP_9-12     0 0        0.08200 0.02700 0.00000 0.00000 0.00000 0.00000 0.00000 0.00000 0.000 0.00000
PCC_5-09 PCC_5-09     0 0        0.00000 0.00000 0.00000 0.00000 0.00000 0.00000 0.00000 0.00000 0.000 0.00000
HCP_5-09 HCP_5-09     0 0        0.38900 0.12800 0.00000 0.00000 0.00000 0.00000 0.00000 0.00000 0.000 0.00000
HCP_3-03 HCP_3-03     0 0        0.20000 0.06600 0.00000 0.00000 0.00000 0.00000 0.00000 0.00000 0.000 0.00000
PCC_3-03 PCC_3-03     0 0        0.00000 0.00000 0.00000 0.00000 0.00000 0.00000 0.00000 0.00000 0.000 0.00000
HCP_3-04 HCP_3-04     0 0        0.26000 0.08500 0.00000 0.00000 0.00000 0.00000 0.00000 0.00000 0.000 0.00000
HCP_2-03 HCP_2-03     0 0        0.32700 0.10800 0.00000 0.00000 0.00000 0.00000 0.00000 0.00000 0.000 0.00000
PCC_2-03 PCC_2-03     0 0        0.00000 0.00000 0.00000 0.00000 0.00000 0.00000 0.00000 0.00000 0.000 0.00000
HCP_2-04 HCP_2-04     0 0        0.35500 0.11700 0.00000 0.00000 0.00000 0.00000 0.00000 0.00000 0.000 0.00000
HCP_1-05 HCP_1-05     0 0        0.06100 0.02000 0.00000 0.00000 0.00000 0.00000 0.00000 0.00000 0.000 0.00000
PCC_1-05 PCC_1-05     0 0        0.00000 0.00000 0.00000 0.00000 0.00000 0.00000 0.00000 0.00000 0.000 0.00000
##L
PCC_1-01 HCP_1-01 1 0 0.0070 0.0009 0.000000    142             
PCC_1-02 HCP_1-02 1 0 0.0070 0.0009 0.000000    142             
PCC_1-02 PCC_1-01 1 0 0.0043 0.0016 0.000000    270             
PCC_1-03 HCP_1-03 1 0 0.0070 0.0009 0.000000    142             
PCC_1-03 PCC_1-02 1 0 0.0043 0.0016 0.000000    270             
PCC_1-04 HCP_1-04 1 0 0.0070 0.0009 0.000000    142             
PCC_1-04 PCC_1-03 1 0 0.0043 0.0016 0.000000    270             
PCC_1-05 HCP_1-05 1 0 0.0070 0.0009 0.000000    142             
PCC_1-05 PCC_1-04 1 0 0.0043 0.0016 0.000000    270             
PCC_1-06 HCP_1-06 1 0 0.0070 0.0009 0.000000    142             
PCC_1-06 PCC_1-05 1 0 0.0043 0.0016 0.000000    270             
PCC_1-07 HCP_1-07 1 0 0.0070 0.0009 0.000000    142             
PCC_1-07 PCC_1-06 1 0 0.0043 0.0016 0.000000    270             
PCC_1-08 HCP_1-08 1 0 0.0070 0.0009 0.000000    142             
PCC_1-08 PCC_1-07 1 0 0.0043 0.0016 0.000000    270             
PCC_1-09 HCP_1-09 1 0 0.0070 0.0009 0.000000    142             
PCC_1-09 PCC_1-08 1 0 0.0043 0.0016 0.000000    270             
PCC_1-10 HCP_1-10 1 0 0.0070 0.0009 0.000000    142             
PCC_1-10 PCC_1-09 1 0 0.0043 0.0016 0.000000    270             
PCC_1-11 HCP_1-11 1 0 0.0070 0.0009 0.000000    142             
PCC_1-11 PCC_1-10 1 0 0.0043 0.0016 0.000000    270             
PCC_1-12 HCP_1-12 1 0 0.0070 0.0009 0.000000    142             
PCC_1-12 PCC_1-11 1 0 0.0043 0.0016 0.000000    270             
PCC_1-13 HCP_1-13 1 0 0.0070 0.0009 0.000000    142             
PCC_1-13 PCC_1-12 1 0 0.0043 0.0016 0.000000    270             
PCC_1-14 HCP_1-14 1 0 0.0070 0.0009 0.000000    142             
PCC_1-14 PCC_1-13 1 0 0.0043 0.0016 0.000000    270             
PCC_2-01 HCP_2-01 1 0 0.0070 0.0009 0.000000    142             
PCC_2-02 HCP_2-02 1 0 0.0070 0.0009 0.000000    142             
PCC_2-02 PCC_2-01 1 0 0.0043 0.0016 0.000000    270             
PCC_2-03 HCP_2-03 1 0 0.0070 0.0009 0.000000    142             
PCC_2-03 PCC_2-02 1 0 0.0043 0.0016 0.000000    270             
PCC_2-04 HCP_2-04 1 0 0.0070 0.0009 0.000000    142             
PCC_2-04 PCC_2-03 1 0 0.0043 0.0016 0.000000    270             
PCC_2-05 HCP_2-05 1 0 0.0070 0.0009 0.000000    142             
PCC_2-05 PCC_2-04 1 0 0.0043 0.0016 0.000000    270             
PCC_2-06 HCP_2-06 1 0 0.0070 0.0009 0.000000    142             
PCC_2-06 PCC_2-05 1 0 0.0043 0.0016 0.000000    270             
PCC_2-07 HCP_2-07 1 0 0.0070 0.0009 0.000000    142             
PCC_2-07 PCC_2-06 1 0 0.0043 0.0016 0.000000    270             
PCC_2-08 HCP_2-08 1 0 0.0070 0.0009 0.000000    142             
PCC_2-08 PCC_2-07 1 0 0.0043 0.0016 0.000000    270             
PCC_2-09 HCP_2-09 1 0 0.0070 0.0009 0.000000    142             
PCC_2-09 PCC_2-08 1 0 0.0043 0.0016 0.000000    270             
PCC_2-10 HCP_2-10 1 0 0.0070 0.0009 0.000000    142             
PCC_2-10 PCC_2-09 1 0 0.0043 0.0016 0.000000    270             
PCC_2-11 HCP_2-11 1 0 0.0070 0.0009 0.000000    142             
PCC_2-11 PCC_2-10 1 0 0.0043 0.0016 0.000000    270             
PCC_2-12 HCP_2-12 1 0 0.0070 0.0009 0.000000    142             
PCC_2-12 PCC_2-11 1 0 0.0043 0.0016 0.000000    270             
PCC_2-13 HCP_2-13 1 0 0.0070 0.0009 0.000000    142             
PCC_2-13 PCC_2-12 1 0 0.0043 0.0016 0.000000    270             
PCC_2-14 HCP_2-14 1 0 0.0070 0.0009 0.000000    142             
PCC_2-14 PCC_2-13 1 0 0.0043 0.0016 0.000000    270             
PCC_3-01 HCP_3-01 1 0 0.0070 0.0009 0.000000    142             
PCC_3-02 HCP_3-02 1 0 0.0070 0.0009 0.000000    142             
PCC_3-02 PCC_3-01 1 0 0.0043 0.0016 0.000000    270             
PCC_3-03 HCP_3-03 1 0 0.0070 0.0009 0.000000    142             
PCC_3-03 PCC_3-02 1 0 0.0043 0.0016 0.000000    270             
PCC_3-04 HCP_3-04 1 0 0.0070 0.0009 0.000000    142             
PCC_3-04 PCC_3-03 1 0 0.0043 0.0016 0.000000    270             
PCC_3-05 HCP_3-05 1 0 0.0070 0.0009 0.000000    142             
PCC_3-05 PCC_3-04 1 0 0.0043 0.0016 0.000000    270             
PCC_3-06 HCP_3-06 1 0 0.0070 0.0009 0.000000    142             
PCC_3-06 PCC_3-05 1 0 0.0043 0.0016 0.000000    270             
PCC_3-07 HCP_3-07 1 0 0.0070 0.0009 0.000000    142             
PCC_3-07 PCC_3-06 1 0 0.0043 0.0016 0.000000    270             
PCC_3-08 HCP_3-08 1 0 0.0070 0.0009 0.000000    142             
PCC_3-08 PCC_3-07 1 0 0.0043 0.0016 0.000000    270             
PCC_3-09 HCP_3-09 1 0 0.0070 0.0009 0.000000    142             
PCC_3-09 PCC_3-08 1 0 0.0043 0.0016 0.000000    270             
PCC_3-10 HCP_3-10 1 0 0.0070 0.0009 0.000000    142             
PCC_3-10 PCC_3-09 1 0 0.0043 0.0016 0.000000    270             
PCC_3-11 HCP_3-11 1 0 0.0070 0.0009 0.000000    142             
PCC_3-11 PCC_3-10 1 0 0.0043 0.0016 0.000000    270             
PCC_3-12 HCP_3-12 1 0 0.0070 0.0009 0.000000    142             
PCC_3-12 PCC_3-11 1 0 0.0043 0.0016 0.000000    270             
PCC_3-13 HCP_3-13 1 0 0.0070 0.0009 0.000000    142             
PCC_3-13 PCC_3-12 1 0 0.0043 0.0016 0.000000    270             
PCC_3-14 HCP_3-14 1 0 0.0070 0.0009 0.000000    142             
PCC_3-14 PCC_3-13 1 0 0.0043 0.0016 0.000000    270             
PCC_4-01 HCP_4-01 1 0 0.0070 0.0009 0.000000    142             
PCC_4-02 HCP_4-02 1 0 0.0070 0.0009 0.000000    142             
PCC_4-02 PCC_4-01 1 0 0.0035 0.0013 0.000000    270             
PCC_4-03 HCP_4-03 1 0 0.0070 0.0009 0.000000    142             
PCC_4-03 PCC_4-02 1 0 0.0035 0.0013 0.000000    270             
PCC_4-04 HCP_4-04 1 0 0.0070 0.0009 0.000000    142             
PCC_4-04 PCC_4-03 1 0 0.0035 0.0013 0.000000    270             
PCC_4-05 HCP_4-05 1 0 0.0070 0.0009 0.000000    142             
PCC_4-05 PCC_4-04 1 0 0.0035 0.0013 0.000000    270             
PCC_4-06 HCP_4-06 1 0 0.0070 0.0009 0.000000    142             
PCC_4-06 PCC_4-05 1 0 0.0035 0.0013 0.000000    270             
PCC_4-07 HCP_4-07 1 0 0.0070 0.0009 0.000000    142             
PCC_4-07 PCC_4-06 1 0 0.0035 0.0013 0.000000    270             
PCC_4-08 HCP_4-08 1 0 0.0070 0.0009 0.000000    142             
PCC_4-08 PCC_4-07 1 0 0.0035 0.0013 0.000000    270             
PCC_4-09 HCP_4-09 1 0 0.0070 0.0009 0.000000    142             
PCC_4-09 PCC_4-08 1 0 0.0035 0.0013 0.000000    270             
PCC_4-10 HCP_4-10 1 0 0.0070 0.0009 0.000000    142             
PCC_4-10 PCC_4-09 1 0 0.0035 0.0013 0.000000    270             
PCC_4-11 HCP_4-11 1 0 0.0070 0.0009 0.000000    142             
PCC_4-11 PCC_4-10 1 0 0.0035 0.0013 0.000000    270             
PCC_4-12 HCP_4-12 1 0 0.0070 0.0009 0.000000    142             
PCC_4-12 PCC_4-11 1 0 0.0035 0.0013 0.000000    270             
PCC_4-13 HCP_4-13 1 0 0.0070 0.0009 0.000000    142             
PCC_4-13 PCC_4-12 1 0 0.0035 0.0013 0.000000    270             
PCC_4-14 HCP_4-14 1 0 0.0070 0.0009 0.000000    142             
PCC_4-14 PCC_4-13 1 0 0.0035 0.0013 0.000000    270             
PCC_1-01 LV_Bus   1 0 0.0043 0.0016 0.000000    270             
PCC_2-01 LV_Bus   1 0 0.0043 0.0016 0.000000    270             
PCC_3-01 LV_Bus   1 0 0.0043 0.0016 0.000000    270             
PCC_4-01 LV_Bus   1 0 0.0035 0.0013 0.000000    270             
PCC_4-15 HCP_4-15 1 0 0.0070 0.0009 0.000000    142             
PCC_4-16 HCP_4-16 1 0 0.0070 0.0009 0.000000    142             
PCC_4-17 HCP_4-17 1 0 0.0070 0.0009 0.000000    142             
PCC_4-18 HCP_4-18 1 0 0.0070 0.0009 0.000000    142             
PCC_4-14 PCC_4-15 1 0 0.0035 0.0013 0.000000    270             
PCC_4-19 HCP_4-19 1 0 0.0070 0.0009 0.000000    142             
PCC_4-17 PCC_4-18 1 0 0.0035 0.0013 0.000000    270             
PCC_4-16 PCC_4-17 1 0 0.0035 0.0013 0.000000    270             
PCC_4-15 PCC_4-16 1 0 0.0035 0.0013 0.000000    270             
PCC_4-18 PCC_4-19 1 0 0.0035 0.0013 0.000000    270             
PCC_5-02 HCP_5-02 1 0 0.0070 0.0009 0.000000    142             
PCC_5-01 HCP_5-01 1 0 0.0070 0.0009 0.000000    142             
PCC_5-03 PCC_5-02 1 0 0.0035 0.0013 0.000000    270             
PCC_5-03 HCP_5-03 1 0 0.0070 0.0009 0.000000    142             
PCC_5-02 PCC_5-01 1 0 0.0035 0.0013 0.000000    270             
PCC_5-05 HCP_5-05 1 0 0.0070 0.0009 0.000000    142             
PCC_5-04 PCC_5-03 1 0 0.0035 0.0013 0.000000    270             
PCC_5-04 HCP_5-04 1 0 0.0070 0.0009 0.000000    142             
PCC_5-07 HCP_5-07 1 0 0.0070 0.0009 0.000000    142             
PCC_5-06 PCC_5-05 1 0 0.0035 0.0013 0.000000    270             
PCC_5-06 HCP_5-06 1 0 0.0070 0.0009 0.000000    142             
PCC_5-05 PCC_5-04 1 0 0.0035 0.0013 0.000000    270             
PCC_5-08 PCC_5-07 1 0 0.0035 0.0013 0.000000    270             
PCC_5-08 HCP_5-08 1 0 0.0070 0.0009 0.000000    142             
PCC_5-07 PCC_5-06 1 0 0.0035 0.0013 0.000000    270             
PCC_5-10 HCP_5-10 1 0 0.0070 0.0009 0.000000    142             
PCC_5-09 PCC_5-08 1 0 0.0035 0.0013 0.000000    270             
PCC_5-09 HCP_5-09 1 0 0.0070 0.0009 0.000000    142             
PCC_5-11 PCC_5-10 1 0 0.0035 0.0013 0.000000    270             
PCC_5-11 HCP_5-11 1 0 0.0070 0.0009 0.000000    142             
PCC_5-10 PCC_5-09 1 0 0.0035 0.0013 0.000000    270             
PCC_5-13 HCP_5-13 1 0 0.0070 0.0009 0.000000    142             
PCC_5-12 PCC_5-11 1 0 0.0035 0.0013 0.000000    270             
PCC_5-12 HCP_5-12 1 0 0.0070 0.0009 0.000000    142             
PCC_5-15 HCP_5-15 1 0 0.0070 0.0009 0.000000    142             
PCC_5-14 PCC_5-13 1 0 0.0035 0.0013 0.000000    270             
PCC_5-14 HCP_5-14 1 0 0.0070 0.0009 0.000000    142             
PCC_5-13 PCC_5-12 1 0 0.0035 0.0013 0.000000    270             
PCC_5-17 HCP_5-17 1 0 0.0070 0.0009 0.000000    142             
PCC_5-16 HCP_5-16 1 0 0.0070 0.0009 0.000000    142             
PCC_5-15 PCC_5-16 1 0 0.0035 0.0013 0.000000    270             
PCC_5-14 PCC_5-15 1 0 0.0035 0.0013 0.000000    270             
PCC_5-19 HCP_5-19 1 0 0.0070 0.0009 0.000000    142             
PCC_5-18 HCP_5-18 1 0 0.0070 0.0009 0.000000    142             
PCC_5-18 PCC_5-19 1 0 0.0035 0.0013 0.000000    270             
PCC_5-17 PCC_5-18 1 0 0.0035 0.0013 0.000000    270             
PCC_5-16 PCC_5-17 1 0 0.0035 0.0013 0.000000    270             
PCC_5-01 LV_Bus   1 0 0.0035 0.0013 0.000000    270             
PCC_6-02 PCC_6-01 1 0 0.0052 0.0020 0.000000    270             
PCC_6-02 HCP_6-02 1 0 0.0070 0.0009 0.000000    142             
PCC_6-01 HCP_6-01 1 0 0.0070 0.0009 0.000000    142             
PCC_6-04 HCP_6-04 1 0 0.0070 0.0009 0.000000    142             
PCC_6-03 PCC_6-02 1 0 0.0052 0.0020 0.000000    270             
PCC_6-03 HCP_6-03 1 0 0.0070 0.0009 0.000000    142             
PCC_6-06 HCP_6-06 1 0 0.0070 0.0009 0.000000    142             
PCC_6-05 PCC_6-04 1 0 0.0052 0.0020 0.000000    270             
PCC_6-05 HCP_6-05 1 0 0.0070 0.0009 0.000000    142             
PCC_6-04 PCC_6-03 1 0 0.0052 0.0020 0.000000    270             
PCC_6-07 PCC_6-06 1 0 0.0052 0.0020 0.000000    270             
PCC_6-07 HCP_6-07 1 0 0.0070 0.0009 0.000000    142             
PCC_6-06 PCC_6-05 1 0 0.0052 0.0020 0.000000    270             
PCC_6-09 HCP_6-09 1 0 0.0070 0.0009 0.000000    142             
PCC_6-08 PCC_6-07 1 0 0.0052 0.0020 0.000000    270             
PCC_6-08 HCP_6-08 1 0 0.0070 0.0009 0.000000    142             
PCC_6-01 LV_Bus   1 0 0.0052 0.0020 0.000000    270             
PCC_6-10 PCC_6-09 1 0 0.0052 0.0020 0.000000    270             
PCC_6-10 HCP_6-10 1 0 0.0070 0.0009 0.000000    142             
PCC_6-09 PCC_6-08 1 0 0.0052 0.0020 0.000000    270             
PCC_7-01 HCP_7-01 1 0 0.0070 0.0009 0.000000    142             
PCC_7-03 HCP_7-03 1 0 0.0070 0.0009 0.000000    142             
PCC_7-02 PCC_7-01 1 0 0.0052 0.0020 0.000000    270             
PCC_7-02 HCP_7-02 1 0 0.0070 0.0009 0.000000    142             
PCC_7-04 PCC_7-03 1 0 0.0052 0.0020 0.000000    270             
PCC_7-04 HCP_7-04 1 0 0.0070 0.0009 0.000000    142             
PCC_7-03 PCC_7-02 1 0 0.0052 0.0020 0.000000    270             
PCC_7-06 HCP_7-06 1 0 0.0070 0.0009 0.000000    142             
PCC_7-05 PCC_7-04 1 0 0.0052 0.0020 0.000000    270             
PCC_7-05 HCP_7-05 1 0 0.0070 0.0009 0.000000    142             
PCC_7-07 PCC_7-06 1 0 0.0052 0.0020 0.000000    270             
PCC_7-07 HCP_7-07 1 0 0.0070 0.0009 0.000000    142             
PCC_7-06 PCC_7-05 1 0 0.0052 0.0020 0.000000    270             
PCC_7-09 HCP_7-09 1 0 0.0070 0.0009 0.000000    142             
PCC_7-08 PCC_7-07 1 0 0.0052 0.0020 0.000000    270             
PCC_7-08 HCP_7-08 1 0 0.0070 0.0009 0.000000    142             
PCC_7-01 LV_Bus   1 0 0.0052 0.0020 0.000000    270             
PCC_7-10 PCC_7-09 1 0 0.0052 0.0020 0.000000    270             
PCC_7-10 HCP_7-10 1 0 0.0070 0.0009 0.000000    142             
PCC_7-09 PCC_7-08 1 0 0.0052 0.0020 0.000000    270             
PCC_8-01 HCP_8-01 1 0 0.0070 0.0009 0.000000    142             
PCC_8-03 HCP_8-03 1 0 0.0070 0.0009 0.000000    142             
PCC_8-02 PCC_8-01 1 0 0.0052 0.0020 0.000000    270             
PCC_8-02 HCP_8-02 1 0 0.0070 0.0009 0.000000    142             
PCC_8-04 PCC_8-03 1 0 0.0052 0.0020 0.000000    270             
PCC_8-04 HCP_8-04 1 0 0.0070 0.0009 0.000000    142             
PCC_8-03 PCC_8-02 1 0 0.0052 0.0020 0.000000    270             
PCC_8-06 HCP_8-06 1 0 0.0070 0.0009 0.000000    142             
PCC_8-05 PCC_8-04 1 0 0.0052 0.0020 0.000000    270             
PCC_8-05 HCP_8-05 1 0 0.0070 0.0009 0.000000    142             
PCC_8-08 HCP_8-08 1 0 0.0070 0.0009 0.000000    142             
PCC_8-07 PCC_8-06 1 0 0.0052 0.0020 0.000000    270             
PCC_8-07 HCP_8-07 1 0 0.0070 0.0009 0.000000    142             
PCC_8-06 PCC_8-05 1 0 0.0052 0.0020 0.000000    270             
PCC_8-09 PCC_8-08 1 0 0.0052 0.0020 0.000000    270             
PCC_8-09 HCP_8-09 1 0 0.0070 0.0009 0.000000    142             
PCC_8-08 PCC_8-07 1 0 0.0052 0.0020 0.000000    270             
PCC_8-01 LV_Bus   1 0 0.0052 0.0020 0.000000    270             
PCC_8-10 PCC_8-09 1 0 0.0052 0.0020 0.000000    270             
PCC_8-10 HCP_8-10 1 0 0.0070 0.0009 0.000000    142             
PCC_9-02 PCC_9-01 1 0 0.0022 0.0008 0.000000    270             
PCC_9-02 HCP_9-02 1 0 0.0070 0.0009 0.000000    142             
PCC_9-01 HCP_9-01 1 0 0.0070 0.0009 0.000000    142             
PCC_9-04 HCP_9-04 1 0 0.0070 0.0009 0.000000    142             
PCC_9-03 PCC_9-02 1 0 0.0022 0.0008 0.000000    270             
PCC_9-03 HCP_9-03 1 0 0.0070 0.0009 0.000000    142             
PCC_9-05 PCC_9-04 1 0 0.0022 0.0008 0.000000    270             
PCC_9-05 HCP_9-05 1 0 0.0070 0.0009 0.000000    142             
PCC_9-04 PCC_9-03 1 0 0.0022 0.0008 0.000000    270             
PCC_9-07 HCP_9-07 1 0 0.0070 0.0009 0.000000    142             
PCC_9-06 PCC_9-05 1 0 0.0022 0.0008 0.000000    270             
PCC_9-06 HCP_9-06 1 0 0.0070 0.0009 0.000000    142             
PCC_9-08 PCC_9-07 1 0 0.0022 0.0008 0.000000    270             
PCC_9-08 HCP_9-08 1 0 0.0070 0.0009 0.000000    142             
PCC_9-07 PCC_9-06 1 0 0.0022 0.0008 0.000000    270             
PCC_9-10 PCC_9-09 1 0 0.0022 0.0008 0.000000    270             
PCC_9-10 HCP_9-10 1 0 0.0070 0.0009 0.000000    142             
PCC_9-09 PCC_9-08 1 0 0.0022 0.0008 0.000000    270             
PCC_9-09 HCP_9-09 1 0 0.0070 0.0009 0.000000    142             
PCC_9-12 HCP_9-12 1 0 0.0070 0.0009 0.000000    142             
PCC_9-11 PCC_9-10 1 0 0.0022 0.0008 0.000000    270             
PCC_9-11 HCP_9-11 1 0 0.0070 0.0009 0.000000    142             
PCC_9-13 PCC_9-12 1 0 0.0022 0.0008 0.000000    270             
PCC_9-13 HCP_9-13 1 0 0.0070 0.0009 0.000000    142             
PCC_9-12 PCC_9-11 1 0 0.0022 0.0008 0.000000    270             
PCC_9-15 HCP_9-15 1 0 0.0070 0.0009 0.000000    142             
PCC_9-14 PCC_9-13 1 0 0.0022 0.0008 0.000000    270             
PCC_9-14 HCP_9-14 1 0 0.0070 0.0009 0.000000    142             
PCC_9-18 HCP_9-18 1 0 0.0070 0.0009 0.000000    142             
PCC_9-17 HCP_9-17 1 0 0.0070 0.0009 0.000000    142             
PCC_9-16 HCP_9-16 1 0 0.0070 0.0009 0.000000    142             
PCC_9-16 PCC_9-17 1 0 0.0022 0.0008 0.000000    270             
PCC_9-15 PCC_9-16 1 0 0.0022 0.0008 0.000000    270             
PCC_9-14 PCC_9-15 1 0 0.0022 0.0008 0.000000    270             
PCC_9-19 HCP_9-19 1 0 0.0070 0.0009 0.000000    142             
PCC_9-01 LV_Bus   1 0 0.0022 0.0008 0.000000    270             
PCC_9-18 PCC_9-19 1 0 0.0022 0.0008 0.000000    270             
PCC_9-17 PCC_9-18 1 0 0.0022 0.0008 0.000000    270             
PCC_9-20 HCP_9-20 1 0 0.0070 0.0009 0.000000    142             
PCC_9-22 HCP_9-22 1 0 0.0070 0.0009 0.000000    142             
PCC_9-21 PCC_9-20 1 0 0.0022 0.0008 0.000000    270             
PCC_9-21 HCP_9-21 1 0 0.0070 0.0009 0.000000    142             
PCC_9-23 PCC_9-22 1 0 0.0022 0.0008 0.000000    270             
PCC_9-23 HCP_9-23 1 0 0.0070 0.0009 0.000000    142             
PCC_9-22 PCC_9-21 1 0 0.0022 0.0008 0.000000    270             
PCC_9-25 HCP_9-25 1 0 0.0070 0.0009 0.000000    142             
PCC_9-24 PCC_9-23 1 0 0.0022 0.0008 0.000000    270             
PCC_9-24 HCP_9-24 1 0 0.0070 0.0009 0.000000    142             
PCC_9-26 PCC_9-25 1 0 0.0022 0.0008 0.000000    270             
PCC_9-26 HCP_9-26 1 0 0.0070 0.0009 0.000000    142             
PCC_9-25 PCC_9-24 1 0 0.0022 0.0008 0.000000    270             
PCC_9-28 PCC_9-27 1 0 0.0022 0.0008 0.000000    270             
PCC_9-28 HCP_9-28 1 0 0.0070 0.0009 0.000000    142             
PCC_9-27 PCC_9-26 1 0 0.0022 0.0008 0.000000    270             
PCC_9-27 HCP_9-27 1 0 0.0070 0.0009 0.000000    142             
PCC_9-30 HCP_9-30 1 0 0.0070 0.0009 0.000000    142             
PCC_9-29 PCC_9-28 1 0 0.0022 0.0008 0.000000    270             
PCC_9-29 HCP_9-29 1 0 0.0070 0.0009 0.000000    142             
PCC_9-31 PCC_9-30 1 0 0.0022 0.0008 0.000000    270             
PCC_9-31 HCP_9-31 1 0 0.0070 0.0009 0.000000    142             
PCC_9-30 PCC_9-29 1 0 0.0022 0.0008 0.000000    270             
PCC_9-19 PCC_9-20 1 0 0.0022 0.0008 0.000000    270             
PCC_9-32 PCC_9-31 1 0 0.0022 0.0008 0.000000    270             
PCC_9-32 HCP_9-32 1 0 0.0070 0.0009 0.000000    142             
PCC_10-02 PCC_10-01 1 0 0.0124 0.0048 0.000000    270             
PCC_10-02 HCP_10-2 1 0 0.0070 0.0009 0.000000    142             
PCC_10-01 HCP_10-01 1 0 0.0070 0.0009 0.000000    142             
PCC_10-04 HCP_10-04 1 0 0.0070 0.0009 0.000000    142             
PCC_10-03 PCC_10-02 1 0 0.0124 0.0048 0.000000    270             
PCC_10-03 HCP_10-03 1 0 0.0070 0.0009 0.000000    142             
PCC_10-01 LV_Bus   1 0 0.0124 0.0048 0.000000    270             
PCC_10-04 PCC_10-03 1 0 0.0124 0.0048 0.000000    270             
##T
LV_Bus   N1229801761 1 0 0.400 10.00 0.630 0.0025 0.0150 0.000000 0.0000     36             
##R
LV_Bus   N122980176 1 0.000  0   0 0.000
